Version 4
SHEET 1 1524 680
WIRE -80 32 -272 32
WIRE 112 32 48 32
WIRE 288 32 112 32
WIRE 384 32 368 32
WIRE -80 48 -80 32
WIRE -48 48 -80 48
WIRE 112 48 112 32
WIRE 480 48 416 48
WIRE 608 48 560 48
WIRE 48 64 48 32
WIRE 48 64 16 64
WIRE 1344 64 784 64
WIRE -48 80 -80 80
WIRE -80 144 -80 80
WIRE 112 144 112 128
WIRE 112 144 -80 144
WIRE 112 160 112 144
WIRE 384 160 384 32
WIRE 416 160 416 48
WIRE 416 160 384 160
WIRE 464 160 416 160
WIRE 608 176 608 48
WIRE 608 176 528 176
WIRE 464 192 384 192
WIRE 112 240 -80 240
WIRE 1104 256 1104 208
WIRE 112 272 112 240
WIRE 976 272 960 272
WIRE 1072 272 1056 272
WIRE 1344 288 1344 64
WIRE 1344 288 1136 288
WIRE 784 304 784 64
WIRE 1072 304 784 304
WIRE -80 336 -80 240
WIRE -48 336 -80 336
WIRE 112 352 16 352
WIRE 288 352 112 352
WIRE 384 352 384 192
WIRE 384 352 368 352
WIRE 400 352 384 352
WIRE -48 368 -96 368
WIRE 400 384 400 352
WIRE -96 416 -96 368
WIRE 1104 432 1104 320
WIRE 400 496 400 464
FLAG -368 384 0
FLAG -256 400 0
FLAG -368 304 V+
FLAG -256 320 V-
FLAG 400 496 0
FLAG 608 176 Output
FLAG -16 96 V+
FLAG -16 32 V-
FLAG -16 320 V+
FLAG 496 144 V+
FLAG -16 384 V-
FLAG 496 208 V-
FLAG 1104 512 0
FLAG 960 272 0
FLAG -96 496 0
FLAG -272 112 0
FLAG 1104 128 0
SYMBOL res 96 32 R0
SYMATTR InstName R1
SYMATTR Value 49.5k
SYMBOL res 96 144 R0
SYMATTR InstName R2
SYMATTR Value 1000
SYMBOL res 96 256 R0
SYMATTR InstName R3
SYMATTR Value 49.5k
SYMBOL res 384 16 R90
WINDOW 0 0 56 VBottom 2
WINDOW 3 32 56 VTop 2
SYMATTR InstName R4
SYMATTR Value 1k
SYMBOL res 384 336 R90
WINDOW 0 0 56 VBottom 2
WINDOW 3 32 56 VTop 2
SYMATTR InstName R5
SYMATTR Value 1k
SYMBOL voltage -368 288 R0
WINDOW 123 0 0 Left 0
WINDOW 39 0 0 Left 0
SYMATTR InstName V1
SYMATTR Value 2.5
SYMBOL voltage -256 304 R0
WINDOW 123 0 0 Left 0
WINDOW 39 0 0 Left 0
SYMATTR InstName V2
SYMATTR Value -2.5
SYMBOL res 384 368 R0
SYMATTR InstName R6
SYMATTR Value 12k
SYMBOL res 576 32 R90
WINDOW 0 0 56 VBottom 2
WINDOW 3 32 56 VTop 2
SYMATTR InstName R7
SYMATTR Value 12k
SYMBOL OpAmps\\opamp2 -16 128 M180
SYMATTR InstName U4
SYMATTR Value LM741
SYMBOL OpAmps\\opamp2 -16 288 R0
SYMATTR InstName U1
SYMATTR Value LM741
SYMBOL OpAmps\\opamp2 496 112 R0
SYMATTR InstName U5
SYMATTR Value LM741
SYMBOL OpAmps\\opamp2 1104 352 M180
SYMATTR InstName U2
SYMATTR Value LM741
SYMBOL voltage 1104 416 R0
WINDOW 123 0 0 Left 0
WINDOW 39 0 0 Left 0
SYMATTR InstName V4
SYMATTR Value 5
SYMBOL voltage 960 272 M90
WINDOW 0 -32 56 VBottom 2
WINDOW 3 32 56 VTop 2
WINDOW 123 0 0 Left 0
WINDOW 39 0 0 Left 0
SYMATTR InstName V5
SYMATTR Value 1.0001m
SYMBOL voltage -272 16 R0
WINDOW 123 0 0 Left 0
WINDOW 39 0 0 Left 0
SYMATTR InstName V3
SYMATTR Value 1m
SYMBOL voltage -96 400 R0
WINDOW 123 0 0 Left 0
WINDOW 39 0 0 Left 0
SYMATTR InstName V6
SYMATTR Value 2m
SYMBOL voltage 1104 112 R0
WINDOW 123 0 0 Left 0
WINDOW 39 0 0 Left 0
SYMATTR InstName V7
SYMATTR Value 5V
TEXT 64 -48 Left 2 !.lib lm741.lib
TEXT -10 560 Left 2 !.tran 100m
