Version 4
SHEET 1 1232 680
WIRE 928 -112 928 -160
WIRE 352 -48 352 -96
WIRE 352 112 352 32
WIRE 544 112 352 112
WIRE 928 112 928 32
WIRE 1120 112 928 112
WIRE 352 192 352 112
WIRE 928 192 928 112
WIRE 352 320 352 272
WIRE 928 320 928 272
FLAG 544 112 Vout
IOPIN 544 112 Out
FLAG 352 320 0
FLAG 352 -96 Vin
IOPIN 352 -96 In
FLAG 176 96 0
FLAG 176 16 Vin
IOPIN 176 16 In
FLAG 1120 112 Vout
IOPIN 1120 112 Out
FLAG 928 320 0
FLAG 928 -160 Vin
IOPIN 928 -160 In
SYMBOL res 336 -64 R0
SYMATTR InstName R1
SYMATTR Value 1.9k
SYMBOL res 336 176 R0
SYMATTR InstName R2
SYMATTR Value 1.1k
SYMBOL voltage 176 0 R0
WINDOW 123 0 0 Left 0
WINDOW 39 0 0 Left 0
SYMATTR InstName V1
SYMATTR Value 9
SYMBOL res 912 -64 R0
SYMATTR InstName R1
SYMATTR Value 1.8k
SYMBOL res 912 176 R0
SYMATTR InstName R2
SYMATTR Value 1k
SYMBOL pushbutton 928 -80 R0
SYMATTR InstName X1
SYMATTR Value PB
TEXT 64 328 Left 2 !.tran 0 2s 0 1
